# STR package for  MODFLOW-2005, generated by Flopy.
        49         3         2         0         1 86400.000        53        53
        49         0         0  # stress period 0
    1    26     2     1     1       0.0000000      98.5000000       0.2500000      97.0000000      98.0000000 
    1    26     3     1     2       0.0000000      97.5000000       0.2500000      96.0000000      97.0000000 
    1    26     4     1     3       0.0000000      96.5000000       0.2500000      95.0000000      96.0000000 
    1    26     5     1     4       0.0000000      95.5000000       0.2500000      94.0000000      95.0000000 
    1    26     6     1     5       0.0000000      94.5000000       0.2500000      93.0000000      94.0000000 
    1    26     7     1     6       0.0000000      93.5000000       0.2500000      92.0000000      93.0000000 
    1    26     8     1     7       0.0000000      92.5000000       0.2500000      91.0000000      92.0000000 
    1    26     9     1     8       0.0000000      91.5000000       0.2500000      90.0000000      91.0000000 
    1    26    10     1     9       0.0000000      90.5000000       0.2500000      89.0000000      90.0000000 
    1    26    11     1    10       0.0000000      89.5000000       0.2500000      88.0000000      89.0000000 
    1    26    12     1    11       0.0000000      88.5000000       0.2500000      87.0000000      88.0000000 
    1    26    13     1    12       0.0000000      87.5000000       0.2500000      86.0000000      87.0000000 
    1    26    14     1    13       0.0000000      86.5000000       0.2500000      85.0000000      86.0000000 
    1    26    15     1    14       0.0000000      85.5000000       0.2500000      84.0000000      85.0000000 
    1    26    16     1    15       0.0000000      84.5000000       0.2500000      83.0000000      84.0000000 
    1    26    17     1    16       0.0000000      83.5000000       0.2500000      82.0000000      83.0000000 
    1    26    18     1    17       0.0000000      82.5000000       0.2500000      81.0000000      82.0000000 
    1    26    19     1    18       0.0000000      81.5000000       0.2500000      80.0000000      81.0000000 
    1    26    20     1    19       0.0000000      80.5000000       0.2500000      79.0000000      80.0000000 
    1    26    21     1    20       0.0000000      79.5000000       0.2500000      78.0000000      79.0000000 
    1    26    22     1    21       0.0000000      78.5000000       0.2500000      77.0000000      78.0000000 
    1    26    23     1    22       0.0000000      77.5000000       0.2500000      76.0000000      77.0000000 
    1    26    24     1    23       0.0000000      76.5000000       0.2500000      75.0000000      76.0000000 
    1    26    25     1    24       0.0000000      75.5000000       0.2500000      74.0000000      75.0000000 
    1    26    26     1    25       0.0000000      75.4000015       0.2500000      73.9000015      74.9000015 
    1    26    27     2     1     181.0000000      75.3000031       0.2500000      73.8000031      74.8000031 
    1    26    28     3     1      -1.0000000      75.1999969       0.2500000      73.6999969      74.6999969 
    1    26    29     3     2       0.0000000      75.0999985       0.2500000      73.5999985      74.5999985 
    1    26    30     3     3       0.0000000      75.0000000       0.2500000      73.5000000      74.5000000 
    1    26    31     3     4       0.0000000      74.9000015       0.2500000      73.4000015      74.4000015 
    1    26    32     3     5       0.0000000      74.8000031       0.2500000      73.3000031      74.3000031 
    1    26    33     3     6       0.0000000      74.6999969       0.2500000      73.1999969      74.1999969 
    1    26    34     3     7       0.0000000      74.5999985       0.2500000      73.0999985      74.0999985 
    1    26    35     3     8       0.0000000      74.5000000       0.2500000      73.0000000      74.0000000 
    1    26    36     3     9       0.0000000      74.4000015       0.2500000      72.9000015      73.9000015 
    1    26    37     3    10       0.0000000      74.3000031       0.2500000      72.8000031      73.8000031 
    1    26    38     3    11       0.0000000      74.1999969       0.2500000      72.6999969      73.6999969 
    1    26    39     3    12       0.0000000      74.0999985       0.2500000      72.5999985      73.5999985 
    1    26    40     3    13       0.0000000      74.0000000       0.2500000      72.5000000      73.5000000 
    1    26    41     3    14       0.0000000      73.9000015       0.2500000      72.4000015      73.4000015 
    1    26    42     3    15       0.0000000      73.8000031       0.2500000      72.3000031      73.3000031 
    1    26    43     3    16       0.0000000      73.6999969       0.2500000      72.1999969      73.1999969 
    1    26    44     3    17       0.0000000      73.5999985       0.2500000      72.0999985      73.0999985 
    1    26    45     3    18       0.0000000      73.5000000       0.2500000      72.0000000      73.0000000 
    1    26    46     3    19       0.0000000      73.4000015       0.2500000      71.9000015      72.9000015 
    1    26    47     3    20       0.0000000      73.3000031       0.2500000      71.8000031      72.8000031 
    1    26    48     3    21       0.0000000      73.1999969       0.2500000      71.6999969      72.6999969 
    1    26    49     3    22       0.0000000      73.0999985       0.2500000      71.5999985      72.5999985 
    1    26    50     3    23       0.0000000      73.0000000       0.2500000      71.5000000      72.5000000 
            1.0           0.001            0.04 
            1.0           0.001            0.04 
            1.0           0.001            0.04 
            1.0           0.001            0.04 
            1.0           0.001            0.04 
            1.0           0.001            0.04 
            1.0           0.001            0.04 
            1.0           0.001            0.04 
            1.0           0.001            0.04 
            1.0           0.001            0.04 
            1.0           0.001            0.04 
            1.0           0.001            0.04 
            1.0           0.001            0.04 
            1.0           0.001            0.04 
            1.0           0.001            0.04 
            1.0           0.001            0.04 
            1.0           0.001            0.04 
            1.0           0.001            0.04 
            1.0           0.001            0.04 
            1.0           0.001            0.04 
            1.0           0.001            0.04 
            1.0           0.001            0.04 
            1.0           0.001            0.04 
            1.0           0.001            0.04 
            1.0           0.001            0.04 
            1.0           0.001            0.04 
            1.0           0.001            0.04 
            1.0           0.001            0.04 
            1.0           0.001            0.04 
            1.0           0.001            0.04 
            1.0           0.001            0.04 
            1.0           0.001            0.04 
            1.0           0.001            0.04 
            1.0           0.001            0.04 
            1.0           0.001            0.04 
            1.0           0.001            0.04 
            1.0           0.001            0.04 
            1.0           0.001            0.04 
            1.0           0.001            0.04 
            1.0           0.001            0.04 
            1.0           0.001            0.04 
            1.0           0.001            0.04 
            1.0           0.001            0.04 
            1.0           0.001            0.04 
            1.0           0.001            0.04 
            1.0           0.001            0.04 
            1.0           0.001            0.04 
            1.0           0.001            0.04 
            1.0           0.001            0.04 
         0          0          0 
         0          0          0 
         1          2          0 
