# STR package for  MODFLOW-2005, generated by Flopy.
75 1 0 0 1 86400.0 53 53 
        51         1         1  # stress period 1
1 1 26 1 1 0.0 8.300000190734863 0.6153846383094788 7.0 8.300000190734863 
1 2 26 1 2 0.0 8.300000190734863 0.6153846383094788 7.0 8.300000190734863 
1 3 26 1 3 0.0 8.300000190734863 0.6153846383094788 7.0 8.300000190734863 
1 4 26 1 4 0.0 8.300000190734863 0.6153846383094788 7.0 8.300000190734863 
1 5 26 1 5 0.0 8.300000190734863 0.6153846383094788 7.0 8.300000190734863 
1 6 26 1 6 0.0 8.300000190734863 0.6153846383094788 7.0 8.300000190734863 
1 7 26 1 7 0.0 8.300000190734863 0.6153846383094788 7.0 8.300000190734863 
1 8 26 1 8 0.0 8.300000190734863 0.6153846383094788 7.0 8.300000190734863 
1 9 26 1 9 0.0 8.300000190734863 0.6153846383094788 7.0 8.300000190734863 
1 10 26 1 10 0.0 8.300000190734863 0.6153846383094788 7.0 8.300000190734863 
1 11 26 1 11 0.0 8.300000190734863 0.6153846383094788 7.0 8.300000190734863 
1 12 26 1 12 0.0 8.300000190734863 0.6153846383094788 7.0 8.300000190734863 
1 13 26 1 13 0.0 8.300000190734863 0.6153846383094788 7.0 8.300000190734863 
1 14 26 1 14 0.0 8.300000190734863 0.6153846383094788 7.0 8.300000190734863 
1 15 26 1 15 0.0 8.300000190734863 0.6153846383094788 7.0 8.300000190734863 
1 16 26 1 16 0.0 8.300000190734863 0.6153846383094788 7.0 8.300000190734863 
1 17 26 1 17 0.0 8.300000190734863 0.6153846383094788 7.0 8.300000190734863 
1 18 26 1 18 0.0 8.300000190734863 0.6153846383094788 7.0 8.300000190734863 
1 19 26 1 19 0.0 8.300000190734863 0.6153846383094788 7.0 8.300000190734863 
1 20 26 1 20 0.0 8.300000190734863 0.6153846383094788 7.0 8.300000190734863 
1 21 26 1 21 0.0 8.300000190734863 1.0 7.0 8.300000190734863 
1 22 26 1 22 0.0 8.300000190734863 6.153846263885498 7.0 8.300000190734863 
1 23 26 1 23 0.0 8.300000190734863 6.153846263885498 7.0 8.300000190734863 
1 24 26 1 24 0.0 8.300000190734863 6.153846263885498 7.0 8.300000190734863 
1 25 26 1 25 0.0 8.300000190734863 6.153846263885498 7.0 8.300000190734863 
1 26 26 1 26 0.0 8.300000190734863 6.153846263885498 7.0 8.300000190734863 
1 27 26 1 27 0.0 8.300000190734863 1.0 7.0 8.300000190734863 
1 28 26 1 28 0.0 8.300000190734863 61.53845977783203 7.0 8.300000190734863 
1 29 26 1 29 0.0 8.300000190734863 61.53845977783203 7.0 8.300000190734863 
1 30 26 1 30 0.0 8.300000190734863 61.53845977783203 7.0 8.300000190734863 
1 31 26 1 31 0.0 8.300000190734863 61.53845977783203 7.0 8.300000190734863 
1 32 26 1 32 0.0 8.300000190734863 61.53845977783203 7.0 8.300000190734863 
1 33 26 1 33 0.0 8.300000190734863 61.53845977783203 7.0 8.300000190734863 
1 34 26 1 34 0.0 8.300000190734863 61.53845977783203 7.0 8.300000190734863 
1 35 26 1 35 0.0 8.300000190734863 61.53845977783203 7.0 8.300000190734863 
1 36 26 1 36 0.0 8.300000190734863 61.53845977783203 7.0 8.300000190734863 
1 37 26 1 37 0.0 8.300000190734863 61.53845977783203 7.0 8.300000190734863 
1 38 26 1 38 0.0 8.300000190734863 61.53845977783203 7.0 8.300000190734863 
1 39 26 1 39 0.0 8.300000190734863 61.53845977783203 7.0 8.300000190734863 
1 40 26 1 40 0.0 8.300000190734863 61.53845977783203 7.0 8.300000190734863 
1 41 26 1 41 0.0 8.300000190734863 61.53845977783203 7.0 8.300000190734863 
1 42 26 1 42 0.0 8.300000190734863 61.53845977783203 7.0 8.300000190734863 
1 43 26 1 43 0.0 8.300000190734863 61.53845977783203 7.0 8.300000190734863 
1 44 26 1 44 0.0 8.300000190734863 61.53845977783203 7.0 8.300000190734863 
1 45 26 1 45 0.0 8.300000190734863 61.53845977783203 7.0 8.300000190734863 
1 46 26 1 46 0.0 8.300000190734863 61.53845977783203 7.0 8.300000190734863 
1 47 26 1 47 0.0 8.300000190734863 61.53845977783203 7.0 8.300000190734863 
1 48 26 1 48 0.0 8.300000190734863 61.53845977783203 7.0 8.300000190734863 
1 49 26 1 49 0.0 8.300000190734863 61.53845977783203 7.0 8.300000190734863 
1 50 26 1 50 0.0 8.300000190734863 61.53845977783203 7.0 8.300000190734863 
1 51 26 1 51 0.0 8.300000190734863 1.0 7.0 8.300000190734863 
8.0 9.999999747378752e-05 0.023770000785589218 
8.0 9.999999747378752e-05 0.023770000785589218 
8.0 9.999999747378752e-05 0.023770000785589218 
8.0 9.999999747378752e-05 0.023770000785589218 
8.0 9.999999747378752e-05 0.023770000785589218 
8.0 9.999999747378752e-05 0.023770000785589218 
8.0 9.999999747378752e-05 0.023770000785589218 
8.0 9.999999747378752e-05 0.023770000785589218 
8.0 9.999999747378752e-05 0.023770000785589218 
8.0 9.999999747378752e-05 0.023770000785589218 
8.0 9.999999747378752e-05 0.023770000785589218 
8.0 9.999999747378752e-05 0.023770000785589218 
8.0 9.999999747378752e-05 0.023770000785589218 
8.0 9.999999747378752e-05 0.023770000785589218 
8.0 9.999999747378752e-05 0.023770000785589218 
8.0 9.999999747378752e-05 0.023770000785589218 
8.0 9.999999747378752e-05 0.023770000785589218 
8.0 9.999999747378752e-05 0.023770000785589218 
8.0 9.999999747378752e-05 0.023770000785589218 
8.0 9.999999747378752e-05 0.023770000785589218 
8.0 9.999999747378752e-05 0.023770000785589218 
8.0 9.999999747378752e-05 0.023770000785589218 
8.0 9.999999747378752e-05 0.023770000785589218 
8.0 9.999999747378752e-05 0.023770000785589218 
8.0 9.999999747378752e-05 0.023770000785589218 
8.0 9.999999747378752e-05 0.023770000785589218 
8.0 9.999999747378752e-05 0.023770000785589218 
8.0 9.999999747378752e-05 0.023770000785589218 
8.0 9.999999747378752e-05 0.023770000785589218 
8.0 9.999999747378752e-05 0.023770000785589218 
8.0 9.999999747378752e-05 0.023770000785589218 
8.0 9.999999747378752e-05 0.023770000785589218 
8.0 9.999999747378752e-05 0.023770000785589218 
8.0 9.999999747378752e-05 0.023770000785589218 
8.0 9.999999747378752e-05 0.023770000785589218 
8.0 9.999999747378752e-05 0.023770000785589218 
8.0 9.999999747378752e-05 0.023770000785589218 
8.0 9.999999747378752e-05 0.023770000785589218 
8.0 9.999999747378752e-05 0.023770000785589218 
8.0 9.999999747378752e-05 0.023770000785589218 
8.0 9.999999747378752e-05 0.023770000785589218 
8.0 9.999999747378752e-05 0.023770000785589218 
8.0 9.999999747378752e-05 0.023770000785589218 
8.0 9.999999747378752e-05 0.023770000785589218 
8.0 9.999999747378752e-05 0.023770000785589218 
8.0 9.999999747378752e-05 0.023770000785589218 
8.0 9.999999747378752e-05 0.023770000785589218 
8.0 9.999999747378752e-05 0.023770000785589218 
8.0 9.999999747378752e-05 0.023770000785589218 
8.0 9.999999747378752e-05 0.023770000785589218 
8.0 9.999999747378752e-05 0.023770000785589218 
